/*--------------------------------*- C++ -*----------------------------------*\
| =========                 |                                                 |
| \\      /  F ield         | OpenFOAM: The Open Source CFD Toolbox           |
|  \\    /   O peration     | Version:  2212                                  |
|   \\  /    A nd           | Website:  www.openfoam.com                      |
|    \\/     M anipulation  |                                                 |
\*---------------------------------------------------------------------------*/
FoamFile
{
    version     2.0;
    format      binary;
    arch        "LSB;label=32;scalar=64";
    class       polyBoundaryMesh;
    location    "constant/polyMesh";
    object      boundary;
}
// * * * * * * * * * * * * * * * * * * * * * * * * * * * * * * * * * * * * * //

5
(
    frontAndBack
    {
        type            patch;
        nFaces          1280;
        startFace       29184;
    }
    inlet
    {
        type            patch;
        nFaces          256;
        startFace       30464;
    }
    outlet
    {
        type            patch;
        nFaces          256;
        startFace       30720;
    }
    lowerWall
    {
        type            wall;
        inGroups        1(wall);
        nFaces          640;
        startFace       30976;
    }
    upperWall
    {
        type            patch;
        nFaces          640;
        startFace       31616;
    }
)

// ************************************************************************* //
