/*--------------------------------*- C++ -*----------------------------------*\
| =========                 |                                                 |
| \\      /  F ield         | OpenFOAM: The Open Source CFD Toolbox           |
|  \\    /   O peration     | Version:  2212                                  |
|   \\  /    A nd           | Website:  www.openfoam.com                      |
|    \\/     M anipulation  |                                                 |
\*---------------------------------------------------------------------------*/
FoamFile
{
    version     2.0;
    format      binary;
    arch        "LSB;label=32;scalar=64";
    class       polyBoundaryMesh;
    location    "1/polyMesh";
    object      boundary;
}
// * * * * * * * * * * * * * * * * * * * * * * * * * * * * * * * * * * * * * //

6
(
    frontAndBack
    {
        type            patch;
        nFaces          1280;
        startFace       798058;
    }
    inlet
    {
        type            patch;
        nFaces          256;
        startFace       799338;
    }
    outlet
    {
        type            patch;
        nFaces          256;
        startFace       799594;
    }
    lowerWall
    {
        type            wall;
        inGroups        1(wall);
        nFaces          4729;
        startFace       799850;
    }
    upperWall
    {
        type            patch;
        nFaces          640;
        startFace       804579;
    }
    boat
    {
        type            wall;
        inGroups        2(boatGroup wall);
        nFaces          76379;
        startFace       805219;
    }
)

// ************************************************************************* //
