/*--------------------------------*- C++ -*----------------------------------*\
| =========                 |                                                 |
| \\      /  F ield         | OpenFOAM: The Open Source CFD Toolbox           |
|  \\    /   O peration     | Version:  2212                                  |
|   \\  /    A nd           | Website:  www.openfoam.com                      |
|    \\/     M anipulation  |                                                 |
\*---------------------------------------------------------------------------*/
FoamFile
{
    version     2.0;
    format      binary;
    arch        "LSB;label=32;scalar=64";
    class       polyBoundaryMesh;
    location    "3/polyMesh";
    object      boundary;
}
// * * * * * * * * * * * * * * * * * * * * * * * * * * * * * * * * * * * * * //

6
(
    frontAndBack
    {
        type            patch;
        nFaces          1360;
        startFace       938698;
    }
    inlet
    {
        type            patch;
        nFaces          272;
        startFace       940058;
    }
    outlet
    {
        type            patch;
        nFaces          272;
        startFace       940330;
    }
    lowerWall
    {
        type            wall;
        inGroups        1(wall);
        nFaces          4729;
        startFace       940602;
    }
    upperWall
    {
        type            patch;
        nFaces          640;
        startFace       945331;
    }
    boat
    {
        type            wall;
        inGroups        2(boatGroup wall);
        nFaces          53749;
        startFace       945971;
    }
)

// ************************************************************************* //
